high accuracy nanocapsules
production of high accuracy fibered
market deployment
cost-effective manufacture of high accuracy capsules
High volume production facility
innovative technology
Coaxial EHD
spherical-shaped nanocapsules
lab scale pilot
lack of industrial scale equipment
overall objective of NANOHIGH
special configurations
controlled delivery of active compounds
multiple applications
principles of ElectroHydroDynamics
functionalities
derivative products
performance
patent